<net xmlns:xsi="http://www.w3.org/2001/XMLSchema-instance" version="1.20" junctionCornerDetail="5" limitTurnSpeed="5.50" xsi:noNamespaceSchemaLocation="http://sumo.dlr.de/xsd/net_file.xsd">

    <location netOffset="-720614.93,321376.16" convBoundary="0.00,23.03,1420.46,882.30" origBoundary="-79.070332,-2.908433,-78.984747,-2.878394" projParameter="+proj=utm +zone=17 +ellps=WGS84 +datum=WGS84 +units=m +no_defs" />

    <type id="highway.footway" priority="1" numLanes="1" speed="13.89" allow="pedestrian" oneway="1" width="2.00" />
    <type id="highway.residential" priority="3" numLanes="1" speed="13.89" disallow="tram rail_urban rail rail_electric rail_fast ship" oneway="0" />
    <type id="highway.secondary" priority="11" numLanes="1" speed="13.89" disallow="tram rail_urban rail rail_electric rail_fast ship" oneway="0" />
    <type id="highway.secondary_link" priority="6" numLanes="1" speed="13.89" disallow="tram rail_urban rail rail_electric rail_fast ship" oneway="0" />
    <type id="highway.tertiary" priority="10" numLanes="1" speed="13.89" disallow="tram rail_urban rail rail_electric rail_fast ship" oneway="0" />

    <edge id=":10917052753_0" function="internal">
        <lane id=":10917052753_0_0" index="0" disallow="tram rail_urban rail rail_electric rail_fast ship" speed="13.89" length="0.29" shape="940.64,433.73 940.89,433.63" />
        <lane id=":10917052753_0_1" index="1" disallow="tram rail_urban rail rail_electric rail_fast ship" speed="13.89" length="0.29" shape="941.85,436.70 942.14,436.57" />
    </edge>
    <edge id=":10917052758_0" function="internal">
        <lane id=":10917052758_0_0" index="0" disallow="tram rail_urban rail rail_electric rail_fast ship" speed="13.89" length="0.10" shape="820.43,518.26 820.43,518.26" />
        <lane id=":10917052758_0_1" index="1" disallow="tram rail_urban rail rail_electric rail_fast ship" speed="13.89" length="0.10" shape="822.75,520.46 822.75,520.46" />
    </edge>
    <edge id=":10956360643_0" function="internal">
        <lane id=":10956360643_0_0" index="0" disallow="tram rail_urban rail rail_electric rail_fast ship" speed="13.89" length="4.37" shape="675.33,672.67 671.66,675.16" />
        <lane id=":10956360643_0_1" index="1" disallow="tram rail_urban rail rail_electric rail_fast ship" speed="13.89" length="4.37" shape="673.44,670.08 669.86,672.51" />
    </edge>
    <edge id=":10956360643_2" function="internal">
        <lane id=":10956360643_2_0" index="0" disallow="tram rail_urban rail rail_electric rail_fast ship" speed="13.89" length="3.90" shape="671.55,667.50 670.58,668.09 669.64,668.42 668.75,668.48 667.90,668.27" />
    </edge>
    <edge id=":11050178430_0" function="internal">
        <lane id=":11050178430_0_0" index="0" speed="13.89" length="0.16" shape="536.30,807.80 536.36,807.94" />
        <lane id=":11050178430_0_1" index="1" speed="13.89" length="0.16" shape="533.33,808.97 533.39,809.12" />
    </edge>
    <edge id=":11342439139_0" function="internal">
        <lane id=":11342439139_0_0" index="0" disallow="tram rail_urban rail rail_electric rail_fast ship" speed="13.89" length="0.30" shape="658.45,762.85 658.68,762.67" />
        <lane id=":11342439139_0_1" index="1" disallow="tram rail_urban rail rail_electric rail_fast ship" speed="13.89" length="0.30" shape="660.38,765.41 660.62,765.23" />
    </edge>
    <edge id=":1314751001_0" function="internal">
        <lane id=":1314751001_0_0" index="0" disallow="tram rail_urban rail rail_electric rail_fast ship" speed="13.89" length="9.04" shape="525.20,763.95 522.93,765.02 521.61,766.54 521.24,768.52 521.82,770.96" />
    </edge>
    <edge id=":1314751001_1" function="internal">
        <lane id=":1314751001_1_0" index="0" disallow="tram rail_urban rail rail_electric rail_fast ship" speed="13.89" length="14.98" shape="525.20,763.95 510.78,768.16" />
        <lane id=":1314751001_1_1" index="1" disallow="tram rail_urban rail rail_electric rail_fast ship" speed="13.89" length="14.98" shape="524.27,760.89 509.93,765.08" />
    </edge>
    <edge id=":1314751001_3" function="internal">
        <lane id=":1314751001_3_0" index="0" disallow="tram rail_urban rail rail_electric rail_fast ship" speed="13.89" length="12.51" shape="517.34,759.34 521.82,770.96" />
        <lane id=":1314751001_3_1" index="1" disallow="tram rail_urban rail rail_electric rail_fast ship" speed="13.89" length="12.51" shape="514.32,760.41 518.84,772.13" />
    </edge>
    <edge id=":1314751001_5" function="internal">
        <lane id=":1314751001_5_0" index="0" disallow="tram rail_urban rail rail_electric rail_fast ship" speed="13.89" length="7.26" shape="514.32,760.41 514.46,761.88 513.78,763.15 512.26,764.21 509.93,765.08" />
    </edge>
    <edge id=":1314751002_0" function="internal">
        <lane id=":1314751002_0_0" index="0" disallow="tram rail_urban rail rail_electric rail_fast ship" speed="13.89" length="9.59" shape="512.48,748.56 513.98,750.75 515.79,752.12 517.93,752.65 520.37,752.37" />
    </edge>
    <edge id=":1314751002_1" function="internal">
        <lane id=":1314751002_1_0" index="0" disallow="tram rail_urban rail rail_electric rail_fast ship" speed="13.89" length="11.42" shape="512.48,748.56 514.08,751.63 515.15,753.74 516.08,755.92 517.27,759.16" />
        <lane id=":1314751002_1_1" index="1" disallow="tram rail_urban rail rail_electric rail_fast ship" speed="13.89" length="11.42" shape="509.64,750.03 511.18,752.98 512.21,755.01 513.11,757.10 514.25,760.22" />
    </edge>
    <edge id=":1314751002_3" function="internal">
        <lane id=":1314751002_3_0" index="0" disallow="tram rail_urban rail rail_electric rail_fast ship" speed="13.89" length="13.82" shape="507.03,756.04 520.37,752.37" />
        <lane id=":1314751002_3_1" index="1" disallow="tram rail_urban rail rail_electric rail_fast ship" speed="13.89" length="13.82" shape="507.90,759.12 521.20,755.46" />
    </edge>
    <edge id=":2481834976_0" function="internal">
        <lane id=":2481834976_0_0" index="0" disallow="tram rail_urban rail rail_electric rail_fast ship" speed="13.89" length="12.27" shape="801.61,547.88 799.19,545.01 797.84,542.61 796.75,540.26 795.10,537.54" />
    </edge>
    <edge id=":2481834976_1" function="internal">
        <lane id=":2481834976_1_0" index="0" disallow="tram rail_urban rail rail_electric rail_fast ship" speed="13.89" length="6.90" shape="803.88,545.63 802.99,544.30 802.84,542.85 803.42,541.27 804.73,539.55" />
    </edge>
    <edge id=":2481834976_2" function="internal">
        <lane id=":2481834976_2_0" index="0" disallow="tram rail_urban rail rail_electric rail_fast ship" speed="13.89" length="10.32" shape="793.41,546.80 795.31,544.35 796.23,542.00 796.16,539.73 795.10,537.54" />
    </edge>
    <edge id=":2481834976_3" function="internal">
        <lane id=":2481834976_3_0" index="0" disallow="tram rail_urban rail rail_electric rail_fast ship" speed="13.89" length="13.06" shape="793.41,546.80 802.41,537.36" />
        <lane id=":2481834976_3_1" index="1" disallow="tram rail_urban rail rail_electric rail_fast ship" speed="13.89" length="13.06" shape="795.72,549.02 804.73,539.55" />
    </edge>
    <edge id=":2729923928_0" function="internal">
        <lane id=":2729923928_0_0" index="0" disallow="tram rail_urban rail rail_electric rail_fast ship" speed="13.89" length="9.50" shape="666.54,667.70 664.30,666.34 663.57,664.73 664.34,662.88 666.63,660.78" />
    </edge>
    <edge id=":2729923928_1" function="internal">
        <lane id=":2729923928_1_0" index="0" disallow="tram rail_urban rail rail_electric rail_fast ship" speed="13.89" length="11.32" shape="655.64,665.00 664.75,658.19" />
        <lane id=":2729923928_1_1" index="1" disallow="tram rail_urban rail rail_electric rail_fast ship" speed="13.89" length="11.32" shape="657.59,667.54 666.63,660.78" />
    </edge>
    <edge id=":3057301415_0" function="internal">
        <lane id=":3057301415_0_0" index="0" disallow="tram rail_urban rail rail_electric rail_fast ship" speed="13.89" length="0.26" shape="717.63,618.42 717.80,618.29" />
        <lane id=":3057301415_0_1" index="1" disallow="tram rail_urban rail rail_electric rail_fast ship" speed="13.89" length="0.26" shape="719.59,620.96 719.82,620.77" />
    </edge>
    <edge id=":3057301416_0" function="internal">
        <lane id=":3057301416_0_0" index="0" disallow="tram rail_urban rail rail_electric rail_fast ship" speed="13.89" length="0.10" shape="771.70,505.32 771.70,505.32" />
    </edge>
    <edge id=":3324160465_0" function="internal">
        <lane id=":3324160465_0_0" index="0" disallow="tram rail_urban rail rail_electric rail_fast ship" speed="13.89" length="0.30" shape="778.05,513.95 777.87,513.71" />
    </edge>
    <edge id=":3455051782_0" function="internal">
        <lane id=":3455051782_0_0" index="0" disallow="tram rail_urban rail rail_electric rail_fast ship" speed="13.89" length="12.37" shape="901.95,66.31 898.56,54.46" />
        <lane id=":3455051782_0_1" index="1" disallow="tram rail_urban rail rail_electric rail_fast ship" speed="13.89" length="12.37" shape="905.04,65.45 901.63,53.56" />
        <lane id=":3455051782_0_2" index="2" disallow="tram rail_urban rail rail_electric rail_fast ship" speed="13.89" length="12.37" shape="908.12,64.60 904.70,52.67" />
    </edge>
    <edge id=":3455051782_3" function="internal">
        <lane id=":3455051782_3_0" index="0" disallow="tram rail_urban rail rail_electric rail_fast ship" speed="13.89" length="10.89" shape="908.12,64.60 907.52,61.31 907.68,58.56 908.60,56.33 910.28,54.64" />
        <lane id=":3455051782_3_1" index="1" disallow="tram rail_urban rail rail_electric rail_fast ship" speed="13.89" length="8.90" shape="908.12,64.60 907.97,62.70 908.58,60.85 909.96,59.04 912.10,57.27" />
    </edge>
    <edge id=":3456760049_0" function="internal">
        <lane id=":3456760049_0_0" index="0" disallow="tram rail_urban rail rail_electric rail_fast ship" speed="13.89" length="12.51" shape="998.18,414.50 996.57,411.02 995.54,408.60 994.66,406.12 993.52,402.45" />
        <lane id=":3456760049_0_1" index="1" disallow="tram rail_urban rail rail_electric rail_fast ship" speed="13.89" length="12.51" shape="1001.08,413.16 999.53,409.79 998.53,407.46 997.68,405.06 996.58,401.52" />
        <lane id=":3456760049_0_2" index="2" disallow="tram rail_urban rail rail_electric rail_fast ship" speed="13.89" length="12.51" shape="1003.99,411.82 1002.21,408.72 1001.27,406.45 1000.61,404.06 999.64,400.59" />
    </edge>
    <edge id=":3456760049_3" function="internal">
        <lane id=":3456760049_3_0" index="0" disallow="tram rail_urban rail rail_electric rail_fast ship" speed="13.89" length="8.45" shape="990.15,409.35 992.14,408.02 993.36,406.43 993.82,404.58 993.52,402.45" />
        <lane id=":3456760049_3_1" index="1" disallow="tram rail_urban rail rail_electric rail_fast ship" speed="13.89" length="12.99" shape="991.59,412.21 994.58,410.19 996.41,407.74 997.08,404.85 996.58,401.52" />
    </edge>
    <edge id=":347404204_0" function="internal">
        <lane id=":347404204_0_0" index="0" disallow="tram rail_urban rail rail_electric rail_fast ship" speed="13.89" length="2.17" shape="1074.25,531.46 1074.71,531.10 1074.97,530.66 1075.05,530.16 1074.95,529.59" />
        <lane id=":347404204_0_1" index="1" disallow="tram rail_urban rail rail_electric rail_fast ship" speed="13.89" length="6.52" shape="1075.91,534.20 1077.27,533.11 1078.06,531.81 1078.30,530.30 1077.99,528.59" />
    </edge>
    <edge id=":347652048_0" function="internal">
        <lane id=":347652048_0_0" index="0" disallow="tram rail_urban rail rail_electric rail_fast ship" speed="13.89" length="8.78" shape="901.73,473.14 899.46,474.20 897.94,475.02 896.51,475.96 894.48,477.44" />
        <lane id=":347652048_0_1" index="1" disallow="tram rail_urban rail rail_electric rail_fast ship" speed="13.89" length="8.78" shape="900.38,470.23 897.94,471.38 896.31,472.25 894.77,473.27 892.58,474.86" />
    </edge>
    <edge id=":347652048_2" function="internal">
        <lane id=":347652048_2_0" index="0" disallow="tram rail_urban rail rail_electric rail_fast ship" speed="13.89" length="9.77" shape="896.14,468.88 897.21,471.31 897.28,473.54 896.37,475.58 894.48,477.44" />
        <lane id=":347652048_2_1" index="1" disallow="tram rail_urban rail rail_electric rail_fast ship" speed="13.89" length="4.91" shape="893.42,470.56 893.95,471.78 893.99,472.90 893.54,473.93 892.58,474.86" />
    </edge>
    <edge id=":347652056_0" function="internal">
        <lane id=":347652056_0_0" index="0" disallow="tram rail_urban rail rail_electric rail_fast ship" speed="13.89" length="1.37" shape="536.41,808.07 536.57,808.35 536.79,808.59 537.08,808.77 537.44,808.90" />
        <lane id=":347652056_0_1" index="1" disallow="tram rail_urban rail rail_electric rail_fast ship" speed="13.89" length="4.36" shape="533.44,809.25 533.95,810.22 534.65,810.99 535.54,811.59 536.62,811.99" />
    </edge>
    <edge id=":347652060_0" function="internal">
        <lane id=":347652060_0_0" index="0" disallow="tram rail_urban rail rail_electric rail_fast ship" speed="13.89" length="1.33" shape="744.47,696.05 745.03,695.85 745.42,695.75 745.83,695.72 746.42,695.75" />
        <lane id=":347652060_0_1" index="1" disallow="tram rail_urban rail rail_electric rail_fast ship" speed="13.89" length="1.33" shape="745.59,699.04 745.78,698.98 745.91,698.94 746.04,698.94 746.24,698.94" />
    </edge>
    <edge id=":347652061_0" function="internal">
        <lane id=":347652061_0_0" index="0" disallow="tram rail_urban rail rail_electric rail_fast ship" speed="13.89" length="2.54" shape="766.19,715.93 766.66,716.44 767.18,716.68 767.75,716.65 768.38,716.36" />
        <lane id=":347652061_0_1" index="1" disallow="tram rail_urban rail rail_electric rail_fast ship" speed="13.89" length="7.61" shape="763.56,717.75 764.97,719.28 766.54,720.00 768.26,719.92 770.14,719.03" />
    </edge>
    <edge id=":3556513151_0" function="internal">
        <lane id=":3556513151_0_0" index="0" disallow="tram rail_urban rail rail_electric rail_fast ship" speed="13.89" length="0.28" shape="616.06,712.84 615.86,712.98" />
        <lane id=":3556513151_0_1" index="1" disallow="tram rail_urban rail rail_electric rail_fast ship" speed="13.89" length="0.28" shape="614.27,710.19 614.01,710.37" />
    </edge>
    <edge id=":3556513159_0" function="internal">
        <lane id=":3556513159_0_0" index="0" disallow="tram rail_urban rail rail_electric rail_fast ship" speed="13.89" length="12.23" shape="1012.50,422.64 1001.51,427.78" />
        <lane id=":3556513159_0_1" index="1" disallow="tram rail_urban rail rail_electric rail_fast ship" speed="13.89" length="12.23" shape="1011.26,419.68 1000.11,424.91" />
    </edge>
    <edge id=":3556513159_2" function="internal">
        <lane id=":3556513159_2_0" index="0" disallow="tram rail_urban rail rail_electric rail_fast ship" speed="13.89" length="10.99" shape="1011.26,419.68 1007.70,420.89 1004.81,421.22 1002.62,420.68 1001.11,419.27" />
        <lane id=":3556513159_2_1" index="1" disallow="tram rail_urban rail rail_electric rail_fast ship" speed="13.89" length="9.39" shape="1011.26,419.68 1008.95,420.26 1006.85,419.95 1004.96,418.77 1003.28,416.71" />
        <lane id=":3556513159_2_2" index="2" disallow="tram rail_urban rail rail_electric rail_fast ship" speed="13.89" length="8.38" shape="1011.26,419.68 1010.20,419.63 1008.88,418.69 1007.30,416.87 1005.45,414.15" />
    </edge>
    <edge id=":3748284429_0" function="internal">
        <lane id=":3748284429_0_0" index="0" disallow="tram rail_urban rail rail_electric rail_fast ship" speed="13.89" length="0.26" width="4.00" shape="1018.30,429.73 1018.25,429.54" />
        <lane id=":3748284429_0_1" index="1" disallow="tram rail_urban rail rail_electric rail_fast ship" speed="13.89" length="0.26" width="4.00" shape="1022.20,428.84 1022.12,428.53" />
    </edge>
    <edge id=":3748284430_0" function="internal">
        <lane id=":3748284430_0_0" index="0" disallow="tram rail_urban rail rail_electric rail_fast ship" speed="13.89" length="9.68" shape="1033.66,413.29 1024.87,417.04" />
        <lane id=":3748284430_0_1" index="1" disallow="tram rail_urban rail rail_electric rail_fast ship" speed="13.89" length="9.68" shape="1032.50,410.31 1023.49,414.15" />
    </edge>
    <edge id=":3748284430_2" function="internal">
        <lane id=":3748284430_2_0" index="0" disallow="tram rail_urban rail rail_electric rail_fast ship" speed="13.89" length="12.29" shape="1030.12,406.56 1029.64,410.28 1028.60,413.26 1027.01,415.52 1024.87,417.04" />
        <lane id=":3748284430_2_1" index="1" disallow="tram rail_urban rail rail_electric rail_fast ship" speed="13.89" length="8.98" shape="1026.93,406.28 1026.59,409.16 1025.91,411.44 1024.87,413.10 1023.49,414.15" />
    </edge>
    <edge id=":4000785670_0" function="internal">
        <lane id=":4000785670_0_0" index="0" disallow="tram rail_urban rail rail_electric rail_fast ship" speed="13.89" length="5.30" shape="530.56,762.03 529.06,762.64 528.03,763.05 526.98,763.40 525.44,763.88" />
        <lane id=":4000785670_0_1" index="1" disallow="tram rail_urban rail rail_electric rail_fast ship" speed="13.89" length="5.30" shape="529.35,759.07 527.93,759.65 526.95,760.03 525.96,760.37 524.50,760.82" />
    </edge>
    <edge id=":4000785683_0" function="internal">
        <lane id=":4000785683_0_0" index="0" disallow="tram rail_urban rail rail_electric rail_fast ship" speed="13.89" length="4.45" shape="522.05,751.92 523.25,751.61 524.06,751.36 524.85,751.06 525.98,750.55" />
        <lane id=":4000785683_0_1" index="1" disallow="tram rail_urban rail rail_electric rail_fast ship" speed="13.89" length="4.45" shape="522.88,755.02 524.23,754.65 525.15,754.38 526.05,754.03 527.32,753.45" />
    </edge>
    <edge id=":4000785688_0" function="internal">
        <lane id=":4000785688_0_0" index="0" disallow="tram rail_urban rail rail_electric rail_fast ship" speed="13.89" length="1.39" shape="510.10,744.92 510.58,745.30 510.88,745.60 511.12,745.96 511.41,746.50" />
        <lane id=":4000785688_0_1" index="1" disallow="tram rail_urban rail rail_electric rail_fast ship" speed="13.89" length="1.39" shape="508.13,747.44 508.29,747.57 508.39,747.67 508.47,747.79 508.57,747.97" />
    </edge>
    <edge id=":4007903719_0" function="internal">
        <lane id=":4007903719_0_0" index="0" disallow="tram rail_urban rail rail_electric rail_fast ship" speed="13.89" length="1.36" shape="753.27,698.03 753.78,698.35 754.11,698.61 754.39,698.92 754.74,699.41" />
        <lane id=":4007903719_0_1" index="1" disallow="tram rail_urban rail rail_electric rail_fast ship" speed="13.89" length="1.36" shape="751.62,700.78 751.79,700.88 751.90,700.97 751.99,701.07 752.11,701.24" />
    </edge>
    <edge id=":4035723654_0" function="internal">
        <lane id=":4035723654_0_0" index="0" disallow="tram rail_urban rail rail_electric rail_fast ship" speed="13.89" length="4.94" shape="676.58,649.57 680.52,646.64" />
        <lane id=":4035723654_0_1" index="1" disallow="tram rail_urban rail rail_electric rail_fast ship" speed="13.89" length="4.94" shape="678.46,652.16 682.45,649.19" />
    </edge>
    <edge id=":4083119113_0" function="internal">
        <lane id=":4083119113_0_0" index="0" disallow="tram rail_urban rail rail_electric rail_fast ship" speed="13.89" length="0.29" shape="908.88,91.22 908.79,90.90" />
        <lane id=":4083119113_0_1" index="1" disallow="tram rail_urban rail rail_electric rail_fast ship" speed="13.89" length="0.29" shape="911.97,90.39 911.89,90.11" />
        <lane id=":4083119113_0_2" index="2" disallow="tram rail_urban rail rail_electric rail_fast ship" speed="13.89" length="0.29" shape="915.06,89.55 915.00,89.33" />
    </edge>
    <edge id=":4224363872_0" function="internal">
        <lane id=":4224363872_0_0" index="0" disallow="tram rail_urban rail rail_electric rail_fast ship" speed="13.89" length="0.43" shape="1036.82,411.55 1036.76,411.57 1036.72,411.59 1036.68,411.60 1036.62,411.63" />
        <lane id=":4224363872_0_1" index="1" disallow="tram rail_urban rail rail_electric rail_fast ship" speed="13.89" length="0.43" shape="1035.76,408.53 1035.58,408.59 1035.46,408.64 1035.34,408.69 1035.18,408.78" />
    </edge>
    <edge id=":4322192620_0" function="internal">
        <lane id=":4322192620_0_0" index="0" disallow="tram rail_urban rail rail_electric rail_fast ship" speed="13.89" length="0.30" shape="1012.17,335.02 1012.25,335.30" />
        <lane id=":4322192620_0_1" index="1" disallow="tram rail_urban rail rail_electric rail_fast ship" speed="13.89" length="0.30" shape="1009.09,335.87 1009.17,336.17" />
    </edge>
    <edge id=":4322195620_0" function="internal">
        <lane id=":4322195620_0_0" index="0" disallow="tram rail_urban rail rail_electric rail_fast ship" speed="13.89" length="1.43" shape="1055.21,482.59 1055.03,482.48 1054.90,482.41 1054.76,482.38 1054.55,482.34" />
        <lane id=":4322195620_0_1" index="1" disallow="tram rail_urban rail rail_electric rail_fast ship" speed="13.89" length="1.43" shape="1056.97,479.92 1056.44,479.58 1056.05,479.39 1055.63,479.27 1055.00,479.17" />
    </edge>
    <edge id=":4695704191_0" function="internal">
        <lane id=":4695704191_0_0" index="0" disallow="tram rail_urban rail rail_electric rail_fast ship" speed="13.89" length="0.30" shape="716.22,619.51 716.45,619.33" />
        <lane id=":4695704191_0_1" index="1" disallow="tram rail_urban rail rail_electric rail_fast ship" speed="13.89" length="0.30" shape="718.16,622.05 718.41,621.87" />
    </edge>
    <edge id=":4695704192_0" function="internal">
        <lane id=":4695704192_0_0" index="0" disallow="tram rail_urban rail rail_electric rail_fast ship" speed="13.89" length="0.24" shape="725.32,631.68 725.04,631.89" />
        <lane id=":4695704192_0_1" index="1" disallow="tram rail_urban rail rail_electric rail_fast ship" speed="13.89" length="0.24" shape="723.26,629.23 723.17,629.30" />
    </edge>
    <edge id=":4695704193_0" function="internal">
        <lane id=":4695704193_0_0" index="0" disallow="tram rail_urban rail rail_electric rail_fast ship" speed="13.89" length="0.29" shape="854.02,484.86 854.23,484.69" />
        <lane id=":4695704193_0_1" index="1" disallow="tram rail_urban rail rail_electric rail_fast ship" speed="13.89" length="0.29" shape="856.01,487.36 856.25,487.17" />
    </edge>
    <edge id=":4695704194_0" function="internal">
        <lane id=":4695704194_0_0" index="0" disallow="tram rail_urban rail rail_electric rail_fast ship" speed="13.89" length="0.27" shape="864.96,499.11 864.70,499.29" />
        <lane id=":4695704194_0_1" index="1" disallow="tram rail_urban rail rail_electric rail_fast ship" speed="13.89" length="0.27" shape="863.06,496.53 862.87,496.66" />
    </edge>
    <edge id=":4695704195_0" function="internal">
        <lane id=":4695704195_0_0" index="0" disallow="tram rail_urban rail rail_electric rail_fast ship" speed="13.89" length="3.52" shape="962.54,424.40 963.46,424.03 964.11,423.81 964.73,423.55 965.60,423.08" />
        <lane id=":4695704195_0_1" index="1" disallow="tram rail_urban rail rail_electric rail_fast ship" speed="13.89" length="3.52" shape="963.80,427.34 964.82,426.93 965.53,426.67 966.23,426.38 967.19,425.86" />
    </edge>
    <edge id=":4695704196_0" function="internal">
        <lane id=":4695704196_0_0" index="0" disallow="tram rail_urban rail rail_electric rail_fast ship" speed="13.89" length="0.10" shape="971.39,442.51 971.31,442.54" />
        <lane id=":4695704196_0_1" index="1" disallow="tram rail_urban rail rail_electric rail_fast ship" speed="13.89" length="0.10" shape="969.99,439.63 970.07,439.60" />
    </edge>
    <edge id=":524356167_0" function="internal">
        <lane id=":524356167_0_0" index="0" disallow="tram rail_urban rail rail_electric rail_fast ship" speed="13.89" length="1.69" shape="1005.18,477.34 1005.56,476.69 1005.87,476.28 1006.27,475.95 1006.91,475.55" />
        <lane id=":524356167_0_1" index="1" disallow="tram rail_urban rail rail_electric rail_fast ship" speed="13.89" length="1.69" shape="1007.99,478.88 1008.11,478.67 1008.22,478.53 1008.35,478.42 1008.56,478.28" />
    </edge>
    <edge id=":524356169_0" function="internal">
        <lane id=":524356169_0_0" index="0" disallow="tram rail_urban rail rail_electric rail_fast ship" speed="13.89" length="0.49" shape="1012.33,490.41 1012.12,490.46 1011.97,490.48 1011.82,490.50 1011.61,490.51" />
        <lane id=":524356169_0_1" index="1" disallow="tram rail_urban rail rail_electric rail_fast ship" speed="13.89" length="0.49" shape="1011.67,487.28 1011.60,487.30 1011.55,487.31 1011.50,487.31 1011.42,487.32" />
    </edge>
    <edge id=":524356171_0" function="internal">
        <lane id=":524356171_0_0" index="0" disallow="tram rail_urban rail rail_electric rail_fast ship" speed="13.89" length="7.35" width="4.00" shape="1022.39,466.18 1024.02,464.92 1025.05,463.47 1025.49,461.84 1025.34,460.01" />
        <lane id=":524356171_0_1" index="1" disallow="tram rail_urban rail rail_electric rail_fast ship" speed="13.89" length="11.93" width="4.00" shape="1024.05,468.91 1026.83,466.82 1028.62,464.48 1029.42,461.91 1029.23,459.10" />
    </edge>
    <edge id=":5243934728_0" function="internal">
        <lane id=":5243934728_0_0" index="0" disallow="tram rail_urban rail rail_electric rail_fast ship" speed="13.89" length="1.53" shape="1032.57,413.69 1033.85,413.22" />
        <lane id=":5243934728_0_1" index="1" disallow="tram rail_urban rail rail_electric rail_fast ship" speed="13.89" length="1.53" shape="1031.12,410.84 1032.69,410.24" />
    </edge>
    <edge id=":5244001738_0" function="internal">
        <lane id=":5244001738_0_0" index="0" disallow="tram rail_urban rail rail_electric rail_fast ship" speed="13.89" length="0.30" shape="865.15,475.79 865.39,475.61" />
        <lane id=":5244001738_0_1" index="1" disallow="tram rail_urban rail rail_electric rail_fast ship" speed="13.89" length="0.30" shape="867.17,478.28 867.41,478.09" />
    </edge>
    <edge id=":525512790_0" function="internal">
        <lane id=":525512790_0_0" index="0" disallow="tram rail_urban rail rail_electric rail_fast ship" speed="13.89" length="0.89" shape="645.52,772.55 645.65,772.50 645.73,772.46 645.81,772.41 645.91,772.33" />
        <lane id=":525512790_0_1" index="1" disallow="tram rail_urban rail rail_electric rail_fast ship" speed="13.89" length="0.89" shape="646.68,775.53 647.05,775.39 647.29,775.27 647.52,775.12 647.84,774.89" />
    </edge>
    <edge id=":577717118_0" function="internal">
        <lane id=":577717118_0_0" index="0" disallow="tram rail_urban rail rail_electric rail_fast ship" speed="13.89" length="0.34" shape="991.62,396.19 991.50,395.76" />
        <lane id=":577717118_0_1" index="1" disallow="tram rail_urban rail rail_electric rail_fast ship" speed="13.89" length="0.34" shape="994.68,395.26 994.59,394.94" />
        <lane id=":577717118_0_2" index="2" disallow="tram rail_urban rail rail_electric rail_fast ship" speed="13.89" length="0.34" shape="997.74,394.33 997.68,394.11" />
    </edge>
    <edge id=":577717275_0" function="internal">
        <lane id=":577717275_0_0" index="0" disallow="tram rail_urban rail rail_electric rail_fast ship" speed="13.89" length="0.34" shape="566.78,730.70 566.82,730.67 566.85,730.66 566.88,730.64 566.92,730.61" />
        <lane id=":577717275_0_1" index="1" disallow="tram rail_urban rail rail_electric rail_fast ship" speed="13.89" length="0.34" shape="568.34,733.49 568.48,733.41 568.57,733.36 568.65,733.30 568.78,733.21" />
    </edge>
    <edge id=":591410663_0" function="internal">
        <lane id=":591410663_0_0" index="0" disallow="tram rail_urban rail rail_electric rail_fast ship" speed="13.89" length="0.99" shape="1030.15,401.31 1030.26,401.73 1030.31,402.03 1030.32,402.34 1030.30,402.78" />
        <lane id=":591410663_0_1" index="1" disallow="tram rail_urban rail rail_electric rail_fast ship" speed="13.89" length="0.99" shape="1027.06,402.13 1027.09,402.27 1027.11,402.37 1027.11,402.47 1027.11,402.62" />
    </edge>
    <edge id=":601481779_0" function="internal">
        <lane id=":601481779_0_0" index="0" disallow="tram rail_urban rail rail_electric rail_fast ship" speed="13.89" length="0.30" shape="1312.08,270.69 1311.97,270.77 1311.90,270.82 1311.83,270.87 1311.72,270.94" />
        <lane id=":601481779_0_1" index="1" disallow="tram rail_urban rail rail_electric rail_fast ship" speed="13.89" length="0.30" shape="1310.10,268.17 1310.06,268.20 1310.04,268.22 1310.01,268.23 1309.98,268.26" />
    </edge>
    <edge id=":601481781_0" function="internal">
        <lane id=":601481781_0_0" index="0" disallow="tram rail_urban rail rail_electric rail_fast ship" speed="13.89" length="7.40" shape="1017.52,426.74 1016.68,424.38 1015.59,422.90 1014.26,422.29 1012.68,422.56" />
        <lane id=":601481781_0_1" index="1" disallow="tram rail_urban rail rail_electric rail_fast ship" speed="13.89" length="13.55" shape="1021.33,425.48 1019.83,421.73 1017.69,419.50 1014.89,418.79 1011.45,419.61" />
    </edge>
    <edge id=":601481781_2" function="internal">
        <lane id=":601481781_2_0" index="0" disallow="tram rail_urban rail rail_electric rail_fast ship" speed="13.89" length="13.19" shape="1024.78,417.08 1012.68,422.56" />
        <lane id=":601481781_2_1" index="1" disallow="tram rail_urban rail rail_electric rail_fast ship" speed="13.89" length="13.19" shape="1023.40,414.20 1011.45,419.61" />
    </edge>
    <edge id=":606104518_0" function="internal">
        <lane id=":606104518_0_0" index="0" disallow="tram rail_urban rail rail_electric rail_fast ship" speed="13.89" length="0.30" shape="965.05,299.30 964.96,298.99" />
        <lane id=":606104518_0_1" index="1" disallow="tram rail_urban rail rail_electric rail_fast ship" speed="13.89" length="0.30" shape="968.13,298.44 968.05,298.16" />